data_PD-29-14_Pawley
_audit_creation_date              2022-08-04
_audit_creation_method            'Materials Studio'
_symmetry_space_group_name_H-M    'P3'
_symmetry_Int_Tables_number       143
_symmetry_cell_setting            trigonal
loop_
_symmetry_equiv_pos_as_xyz
  x,y,z
  -y,x-y,z
  -x+y,-x,z
_cell_length_a                    23.4095
_cell_length_b                    23.4095
_cell_length_c                    4.2474
_cell_angle_alpha                 90.0000
_cell_angle_beta                  90.0000
_cell_angle_gamma                 120.0000
loop_
_atom_site_label
_atom_site_type_symbol
_atom_site_fract_x
_atom_site_fract_y
_atom_site_fract_z
_atom_site_U_iso_or_equiv
_atom_site_adp_type
_atom_site_occupancy
C1     C     0.61481   0.68899  -0.03192   0.00000  Uiso   1.00
C2     C     0.60443   0.73374   0.14784   0.00000  Uiso   1.00
C3     C     0.64741   0.80171   0.12228   0.00000  Uiso   1.00
C4     C     0.70313   0.82595  -0.06941   0.00000  Uiso   1.00
C5     C     0.71571   0.78231  -0.23851   0.00000  Uiso   1.00
C6     C     0.67173   0.71436  -0.22307   0.00000  Uiso   1.00
F7     F     0.55370   0.71185   0.35433   0.00000  Uiso   1.00
F8     F     0.63579   0.84412   0.29054   0.00000  Uiso   1.00
F9     F     0.74529   0.89186  -0.08956   0.00000  Uiso   1.00
F10    F     0.77012   0.80595  -0.42330   0.00000  Uiso   1.00
F11    F     0.68415   0.67360  -0.40065   0.00000  Uiso   1.00
C12    C     0.59684   0.57561   0.04026   0.00000  Uiso   1.00
C13    C     0.56903   0.61603  -0.01039   0.00000  Uiso   1.00
H14    H     0.64965   0.59789   0.07041   0.00000  Uiso   1.00
C16    C     0.26603   0.63612  -0.12965   0.00000  Uiso   1.00
N17    N     0.29695   0.59999  -0.12872   0.00000  Uiso   1.00
C18    C     0.73802   0.35990   0.12111   0.00000  Uiso   1.00
C19    C     0.76547   0.32728  -0.04445   0.00000  Uiso   1.00
C20    C     0.83372   0.35351  -0.06177   0.00000  Uiso   1.00
C21    C     0.87710   0.41354   0.08641   0.00000  Uiso   1.00
C22    C     0.85031   0.44655   0.25188   0.00000  Uiso   1.00
C23    C     0.78185   0.41990   0.27050   0.00000  Uiso   1.00
N24    N     0.98910   0.50961   0.04022   0.00000  Uiso   1.00
C25    C     0.94984   0.44300   0.05730   0.00000  Uiso   1.00
C26    C     0.08633   0.50077  -0.03869   0.00000  Uiso   1.00
C27    C     0.05544   0.53924  -0.00374   0.00000  Uiso   1.00
C28    C     0.09285   0.60808  -0.01870   0.00000  Uiso   1.00
C29    C     0.16101   0.63970  -0.06463   0.00000  Uiso   1.00
C30    C     0.19289   0.60283  -0.10402   0.00000  Uiso   1.00
C31    C     0.15474   0.53355  -0.10165   0.00000  Uiso   1.00
H32    H     0.73421   0.28144  -0.16316   0.00000  Uiso   1.00
H33    H     0.85242   0.32747  -0.19947   0.00000  Uiso   1.00
H34    H     0.88235   0.49300   0.36811   0.00000  Uiso   1.00
H35    H     0.76335   0.44716   0.39640   0.00000  Uiso   1.00
H36    H     0.06917   0.63742   0.00917   0.00000  Uiso   1.00
H37    H     0.18875   0.69311  -0.06676   0.00000  Uiso   1.00
H38    H     0.17936   0.50587  -0.14495   0.00000  Uiso   1.00
N15    N     0.66667   0.33333   0.12933   0.00000  Uiso   1.00
loop_
_geom_bond_atom_site_label_1
_geom_bond_atom_site_label_2
_geom_bond_distance
_geom_bond_site_symmetry_2
_ccdc_geom_bond_type
C1     C2      1.412   .     A
C1     C6      1.413   .     A
C1     C13     1.498   .     S
C2     C3      1.398   .     A
C2     F7      1.354   .     S
C3     C4      1.395   .     A
C3     F8      1.357   .     S
C4     C5      1.396   .     A
C4     F9      1.356   .     S
C5     C6      1.399   .     A
C5     F10     1.356   .     S
C6     F11     1.357   .     S
C12    C13     1.408   .     A
C12    H14     1.083   .     S
C12    C25     1.402   2_655 A
C13    C26     1.424   2_665 A
C16    N17     1.361   .     A
C16    N17     1.360   3_565 A
C16    C30     1.489   .     S
N17    C16     1.360   2_665 A
C18    C19     1.407   .     A
C18    C23     1.410   .     A
C18    N15     1.463   .     S
C19    C20     1.398   .     A
C19    H32     1.075   .     S
C20    C21     1.405   .     A
C20    H33     1.082   .     S
C21    C22     1.403   .     A
C21    C25     1.489   .     S
C22    C23     1.401   .     A
C22    H34     1.083   .     S
C23    H35     1.076   .     S
N24    C25     1.360   .     A
N24    C27     1.360   1_655 A
C25    C12     1.402   3_665 A
C26    C27     1.417   .     A
C26    C31     1.413   .     A
C26    C13     1.424   3_565 A
C27    C28     1.399   .     A
C27    N24     1.360   1_455 A
C28    C29     1.397   .     A
C28    H36     1.083   .     S
C29    C30     1.405   .     A
C29    H37     1.083   .     S
C30    C31     1.407   .     A
C31    H38     1.077   .     S
N15    C18     1.463   2_655 S
N15    C18     1.463   3_665 S
